LTspice 24.1.4 for Windows
Circuit: C:\Users\marsh\Documents\LTspice\4innand2.net
Start Time: Wed Mar 12 22:10:55 2025
solver = Normal
Maximum thread count: 16
tnom = 27
temp = 27
method = trap
WARNING: Node a is floating.
WARNING: Node b is floating.
WARNING: Node n002 is floating.
WARNING: Node c is floating.
WARNING: Node d is floating.

Direct Newton iteration failed to find .op point.  (Use ".option noopiter" to skip.)
Starting Gmin stepping
Gmin = 10
Gmin = 1.07374
Gmin = 0.115292
Gmin = 0.0123794
Gmin = 0.00132923
Gmin = 0.000142725
Gmin = 1.5325e-05
Gmin = 1.6455e-06
Gmin = 1.76685e-07
Gmin = 1.89714e-08
Gmin = 2.03704e-09
Gmin = 2.18725e-10
Gmin = 2.34854e-11
Gmin = 2.52173e-12
Gmin = 2.70769e-13
Gmin = 0
Gmin stepping succeeded in finding the operating point.

Total elapsed time: 0.296 seconds.

Files loaded:
C:\Users\marsh\Documents\LTspice\4innand2.net
C:\Users\marsh\AppData\Local\LTspice\lib\cmp\standard.mos
C:\Users\marsh\Downloads\cmosedu_models.txt

