LTspice 24.1.4 for Windows
Circuit: C:\Users\marsh\Documents\LTspice\EE115Cbaseline.net
Start Time: Wed Mar 12 22:20:27 2025
solver = Normal
Maximum thread count: 16
tnom = 27
temp = 27
method = trap
WARNING: Node x3 is floating.
WARNING: Node x0 is floating.
WARNING: Node t2 is floating.
WARNING: Node t1 is floating.
WARNING: Node t0 is floating.
WARNING: Node x6:n002 is floating.
WARNING: Node x11:nc_01 is floating.
WARNING: Node x12:n002 is floating.
WARNING: Node x15:n002 is floating.
WARNING: Node x18:n002 is floating.
WARNING: Node x20:n002 is floating.

Direct Newton iteration failed to find .op point.  (Use ".option noopiter" to skip.)
Starting Gmin stepping
Gmin = 10
Gmin = 1.07374
Gmin = 0.115292
Gmin = 0.0123794
Gmin = 0.00132923
Gmin = 0.000142725
Gmin = 1.5325e-05
Gmin = 1.6455e-06
Gmin = 1.76685e-07
Gmin = 1.89714e-08
Gmin = 2.03704e-09
Gmin = 2.18725e-10
Gmin = 2.34854e-11
vernier = 0.5
vernier = 0.25
vernier = 0.125
vernier = 0.0625
vernier = 0.03125
vernier = 0.015625
vernier = 0.0078125
vernier = 0.00390625
vernier = 0.00195312
Gmin = 2.34854e-11
vernier = 0.000976562
vernier = 0.000488281
Gmin = 0
Gmin stepping failed

Starting source stepping with srcstepmethod=0
Source Step = 3.0303%
Source Step = 33.3333%
Source Step = 36.3755%
Starting source stepping with srcstepmethod=1
Source Step = 3.0303%
Source Step = 33.3333%
Source Step = 63.6364%
Source Step = 93.9394%
Source Step = 100%
Source Step = 100%
Source Step = 99.0118%
vernier = 0.000976562
Source Step = 99.0296%
Source stepping failed

Pseudo Transient succeeded in finding the operating point at 327.705 ms.
Total elapsed time: 13.004 seconds.

Files loaded:
C:\Users\marsh\Documents\LTspice\EE115Cbaseline.net
C:\Users\marsh\AppData\Local\LTspice\lib\cmp\standard.mos
C:\Users\marsh\Downloads\cmosedu_models.txt

