LTspice 24.1.4 for Windows
Circuit: C:\Users\marsh\Documents\LTspice\TestBench.net
Start Time: Thu Mar 13 14:49:11 2025
solver = Normal
Maximum thread count: 16
tnom = 27
temp = 27
method = trap
WARNING: Node x11:x6:n001 is floating.
WARNING: Node x11:x12:n001 is floating.
WARNING: Node x11:x15:nc_01 is floating.
WARNING: Node x11:x15:nc_02 is floating.
WARNING: Node x11:x15:nc_03 is floating.
WARNING: Node x11:x18:n001 is floating.
WARNING: Node x11:x14:n001 is floating.
WARNING: Node x10:x6:n001 is floating.
WARNING: Node x10:x12:n001 is floating.
WARNING: Node x10:x15:nc_01 is floating.
WARNING: Node x10:x15:nc_02 is floating.
WARNING: Node x10:x15:nc_03 is floating.
WARNING: Node x10:x18:n001 is floating.
WARNING: Node x10:x14:n001 is floating.

Direct Newton iteration failed to find .op point.  (Use ".option noopiter" to skip.)
Starting Gmin stepping
Gmin = 10
Gmin = 1.07374
Gmin = 0.115292
Gmin = 0.0123794
Gmin = 0.00132923
Gmin = 0.000142725
Gmin = 1.5325e-05
Gmin = 1.6455e-06
Gmin = 1.76685e-07
Gmin = 1.89714e-08
Gmin = 2.03704e-09
Gmin = 2.18725e-10
Gmin = 2.34854e-11
Gmin = 2.52173e-12
Gmin = 2.70769e-13
Gmin = 0
Gmin stepping succeeded in finding the operating point.

Total elapsed time: 52.206 seconds.

Files loaded:
C:\Users\marsh\Documents\LTspice\TestBench.net
C:\Users\marsh\AppData\Local\LTspice\lib\cmp\standard.mos
C:\Users\marsh\Documents\LTspice\cmosedu_models.txt
C:\Users\marsh\Downloads\cmosedu_models.txt

