LTspice 24.1.4 for Windows
Circuit: C:\Users\marsh\Documents\LTspice\transgate1.net
Start Time: Wed Mar 12 21:49:01 2025
solver = Normal
Maximum thread count: 16
tnom = 27
temp = 27
method = trap
WARNING: Node s is floating.
WARNING: Node out is floating.
WARNING: Node sbar is floating.

.OP point found by inspection.
Total elapsed time: 0.171 seconds.

Files loaded:
C:\Users\marsh\Documents\LTspice\transgate1.net
C:\Users\marsh\AppData\Local\LTspice\lib\cmp\standard.mos
C:\Users\marsh\Downloads\cmosedu_models.txt

