LTspice 24.1.4 for Windows
Circuit: C:\Users\marsh\Documents\LTspice\xor1.net
Start Time: Wed Mar 12 21:56:40 2025
solver = Normal
Maximum thread count: 16
tnom = 27
temp = 27
method = trap
WARNING: Node nc_01 is floating.

Direct Newton iteration for .op point succeeded.
Total elapsed time: 0.197 seconds.

Files loaded:
C:\Users\marsh\Documents\LTspice\xor1.net
C:\Users\marsh\AppData\Local\LTspice\lib\cmp\standard.mos
C:\Users\marsh\Downloads\cmosedu_models.txt

